<?xml version="1.0" encoding="UTF-8"?>

<!-- generated on Sun Apr  9 00:33:12 2017 by SUMO polyconvert Version 0.29.0
<?xml version="1.0" encoding="UTF-8"?>

<configuration xmlns:xsi="http://www.w3.org/2001/XMLSchema-instance" xsi:noNamespaceSchemaLocation="http://sumo.dlr.de/xsd/polyconvertConfiguration.xsd">

    <input>
        <net-file value="/Users/nhong/sumo-work/simple-street/2017-04-09-00-33-10/osm.net.xml"/>
        <osm-files value="osm_bbox.osm.xml"/>
        <osm.keep-full-type value="true"/>
        <type-file value="/Users/nhong/workspace/sumo/data/typemap/osmPolyconvert.typ.xml"/>
    </input>

    <output>
        <output-file value="/Users/nhong/sumo-work/simple-street/2017-04-09-00-33-10/osm.poly.xml"/>
    </output>

    <processing>
        <poi-layer-offset value="5"/>
    </processing>

    <report>
        <verbose value="true"/>
    </report>

</configuration>
-->

<additional xmlns:xsi="http://www.w3.org/2001/XMLSchema-instance" xsi:noNamespaceSchemaLocation="http://sumo.dlr.de/xsd/additional_file.xsd">
    <location netOffset="-483108.64,-5453731.14" convBoundary="-922.54,-2315.69,5064.43,4856.41" origBoundary="-123.244925,49.215405,-123.162487,49.279788" projParameter="+proj=utm +zone=10 +ellps=WGS84 +datum=WGS84 +units=m +no_defs"/>

    <poly id="106468042" type="waterway.stream" color="181,209,209" fill="0" layer="-4.00" shape="1183.61,369.80 1210.31,307.56"/>
    <poly id="106468045" type="waterway.stream" color="181,209,209" fill="0" layer="-4.00" shape="1210.31,307.56 1254.62,204.25 1272.15,140.02"/>
    <poly id="152418595" type="natural.coastline" color="140,196,107" fill="0" layer="-4.00" shape="189.14,527.73 253.73,490.38 374.49,410.72 487.79,317.30 507.84,321.03 508.97,298.46 546.97,276.77 552.94,262.37 578.64,216.76 596.59,221.19 604.54,199.59 623.84,188.05 701.39,129.29 769.10,58.58 847.23,-10.17 952.90,-118.15 1084.22,-228.41 1106.05,-227.87 1160.46,-260.19 1167.63,-275.80 1258.40,-341.87 1277.36,-384.35"/>
    <poly id="156138515" type="amenity.parking" color="184,184,179" fill="1" layer="-1.00" shape="352.46,591.39 348.08,589.56 324.81,601.60 324.85,600.32 325.12,593.98 322.31,586.97 329.92,580.17 352.81,565.75 370.30,557.57 374.95,564.01 380.21,570.34 398.50,562.40 397.68,565.73 352.46,591.39"/>
    <poly id="23198535" type="leisure.golf_course" color="207,245,201" fill="0" layer="-2.00" shape="1056.13,321.97 1170.67,238.96 1270.00,136.14 1309.35,119.83 1382.48,89.52 1403.96,78.92 1437.78,62.24 1497.12,32.96 1518.62,18.92 1553.36,-3.75 1583.60,-23.50 1598.89,-33.84 1630.45,-55.17 1671.34,-82.80 1701.33,-89.55 1794.55,4.71"/>
    <poly id="30515622" type="waterway.stream" color="181,209,209" fill="0" layer="-4.00" shape="606.57,2230.92 651.35,2087.49 715.46,1896.62 774.54,1790.18 852.13,1644.29 929.08,1492.69 934.93,1471.99 931.40,1368.77 1045.98,1049.46 1051.71,991.81 1057.09,813.51 1073.38,739.63 1174.96,389.97 1183.61,369.80"/>
    <poly id="36865593" type="natural.wood" color="140,196,107" fill="0" layer="-4.00" shape="1910.53,104.81 1874.06,117.81 1842.84,124.12 1805.40,142.91 1752.36,167.98 1711.79,183.67 1661.86,202.49 1611.94,224.44 1565.10,230.80 1537.02,246.45 1490.17,249.69 1452.69,252.91 1412.08,253.03 1365.23,256.28 1324.65,265.73 1287.17,268.95 1256.00,290.85 1202.92,303.47 1159.21,309.82 1109.22,309.96 1078.00,316.27 1056.13,321.97"/>
    <poly id="375697418" type="leisure.nature_reserve" color="207,245,201" fill="1" layer="-2.00" shape="-904.28,4729.91 -887.07,4618.77 -895.16,4598.79 -877.66,4542.66 -805.43,4498.03 -707.54,4387.06 -662.47,4284.22 -608.72,4288.23 -492.83,4278.97 -513.87,4146.22 -519.58,4110.68 -653.40,4130.60 -621.34,4043.62 -616.49,3982.27 -599.69,3937.76 -602.45,3909.32 -564.65,3765.64 -543.52,3698.66 -442.53,3514.20 -404.29,3433.26 -424.41,3415.24 -370.39,3392.10 -318.69,3359.85 -346.78,3341.86 -403.32,3310.02 -210.15,2953.74 -193.76,2923.51 -117.77,2964.91 -79.48,2893.25 -42.29,2911.36 -1.97,2926.62 39.19,2938.52 101.51,2946.75 104.53,2941.64 154.32,2857.51 98.54,2827.20 92.21,2813.84 34.43,2785.53 -20.20,2781.36 -74.34,2755.19 -90.53,2750.26 -109.19,2751.02 -117.57,2719.72 -99.90,2707.70 -91.38,2686.95 -77.68,2653.57 -82.11,2641.97 -30.86,2561.97 40.91,2417.14 47.41,2403.66 59.58,2359.27 47.09,2282.08 71.26,2257.28 115.04,2120.49 146.15,1972.12 157.58,1891.73 176.06,1786.68 209.45,1631.95 219.69,1548.53 226.69,1512.05 232.14,1500.22 248.01,1432.03 258.52,1408.92 294.83,1387.04 287.07,1361.20 288.39,1326.46 307.10,1242.33 318.79,1189.96 324.48,1168.34 343.75,1158.15 330.45,1128.82 300.32,1127.55 309.30,1073.84 313.10,1049.80 318.17,1036.22 319.37,984.90 333.47,946.02 328.35,933.88 311.56,867.41 329.24,777.88 239.76,661.81 189.29,568.11 443.20,439.19 587.92,335.96 624.85,273.47 779.16,174.20 882.97,381.57 1056.13,321.97 1170.67,238.96 1270.00,136.14 1309.35,119.83 1382.48,89.52 1403.96,78.92 1437.78,62.24 1497.12,32.96 1518.62,18.92 1553.36,-3.75 1583.60,-23.50 1598.89,-33.84 1630.45,-55.17 1671.34,-82.80 1701.33,-89.55 1794.55,4.71 1817.84,25.07 1845.73,40.00 1910.53,104.81 1928.46,145.51 2049.16,97.03 2077.62,85.47 2259.00,8.15 2346.57,-16.26 2483.61,-78.66 2533.43,-104.75 2552.19,-87.99 2548.85,29.65 2548.18,46.31 2442.13,46.81 2443.14,260.62 2559.44,261.80 2557.26,286.71 2560.60,700.71 2563.59,1071.04 2561.91,1105.27 2440.92,1107.52 2409.85,1114.55 1978.59,1453.42 1976.31,1481.73 2013.13,1498.65 2060.23,1504.39 2157.16,1530.42 2288.05,1563.78 2405.96,1561.72 2435.23,1559.93 2449.81,1536.77 2540.42,1540.49 2567.90,1541.22 2577.53,1546.87 2579.97,1460.18 2792.20,1457.11 2795.31,1534.35 2796.89,1561.09 2795.99,1603.12 2794.70,1902.15 2634.01,1902.59 2634.81,1913.45 2625.16,2108.10 2593.94,2109.74 2595.18,2271.75 2580.48,2272.15 2459.18,2277.15 2444.54,2282.01 2390.62,2285.02 2186.63,2296.40 2179.21,2299.02 2137.34,2313.96 2125.39,2308.79 2111.18,2304.94 2103.49,2346.89 2100.23,2395.01 2100.78,2425.49 1653.89,2442.14 1644.19,2442.33 1234.49,2451.85 1211.77,2450.25 1210.73,2567.03 1218.09,2910.75 1027.20,2908.73 945.19,2930.96 948.53,2833.89 926.07,2828.29 888.92,2820.87 773.31,2861.35 644.45,2859.94 590.30,2854.78 516.76,2864.37 397.04,2882.46 372.48,2889.17 219.96,3012.81 134.95,3072.28 100.09,3101.20 40.02,3183.03 -0.99,3205.60 -38.36,3283.06 -111.50,3355.97 -199.72,3484.77 -223.31,3541.01 -224.84,3589.17 -195.78,3609.42 -194.31,3642.16 -143.05,3607.85 -118.54,3604.99 -85.71,3573.33 35.95,3528.23 222.00,3416.09 266.47,3372.04 340.33,3346.11 364.03,3381.22 374.61,3386.59 439.75,3408.88 499.21,3442.85 546.99,3483.69 577.99,3520.97 597.16,3542.69 620.44,3569.10 640.99,3569.93 702.63,3512.45 798.44,3443.69 854.33,3401.64 907.47,3361.65 910.27,3465.65 914.79,3633.98 903.78,3665.17 763.86,3643.46 733.39,3755.41 715.66,3831.77 708.46,3865.56 697.55,3896.69 645.10,3950.35 559.93,4057.76 544.11,4132.20 530.61,4278.58 541.34,4318.12 543.89,4353.66 551.10,4386.57 559.17,4423.86 567.81,4465.23 572.54,4495.99 587.38,4574.19 524.53,4585.76 464.06,4591.07 408.16,4602.04 284.74,4643.10 205.26,4662.97 139.03,4671.42 40.59,4671.08 -50.96,4661.38 -118.20,4659.23 -170.41,4669.72 -254.94,4703.64 -345.15,4740.16 -360.49,4746.38 -431.88,4767.36 -508.20,4780.19 -585.02,4789.47 -609.59,4840.30 -736.76,4856.41 -893.79,4845.93 -922.54,4837.39 -904.28,4729.91"/>
    <poly id="53622357" type="leisure.nature_reserve" color="207,245,201" fill="1" layer="-2.00" shape="1401.00,1003.10 1391.79,1048.73 1384.06,1104.69 1313.21,1338.53 1260.40,1442.86 1164.90,1449.16 1059.81,1454.00 995.12,1412.90 906.62,1334.58 831.91,1241.01 702.97,1166.49 498.37,1116.79 445.69,1098.65 465.63,957.10 479.18,787.31 436.54,631.70 533.32,612.72 804.77,504.47 888.99,462.17 1154.34,399.11 1291.74,384.70 1496.27,352.98 1689.81,301.04 1718.08,357.03 1525.83,638.81 1397.64,826.71 1387.05,949.76 1401.00,1003.10"/>
    <poly id="53622357#1" type="natural.wood" color="140,196,107" fill="1" layer="-4.00" shape="1401.00,1003.10 1391.79,1048.73 1384.06,1104.69 1313.21,1338.53 1260.40,1442.86 1164.90,1449.16 1059.81,1454.00 995.12,1412.90 906.62,1334.58 831.91,1241.01 702.97,1166.49 498.37,1116.79 445.69,1098.65 465.63,957.10 479.18,787.31 436.54,631.70 533.32,612.72 804.77,504.47 888.99,462.17 1154.34,399.11 1291.74,384.70 1496.27,352.98 1689.81,301.04 1718.08,357.03 1525.83,638.81 1397.64,826.71 1387.05,949.76 1401.00,1003.10"/>
    <poly id="95896622" type="natural.wood" color="140,196,107" fill="0" layer="-4.00" shape="-70.32,1009.37 -79.50,997.25 -62.98,973.57 39.36,888.16 75.45,842.46 158.20,769.28 232.52,710.30 290.65,670.27 358.93,628.53 378.91,627.46 385.67,625.08 389.37,615.96 453.25,575.58 541.18,532.42 600.36,506.25 679.52,476.64 804.72,439.12 906.58,415.53 1071.41,383.31 1213.24,357.24 1429.19,316.44 1533.78,296.23 1589.95,278.18 1667.09,250.95 1791.25,199.94 1883.27,163.22 1928.46,145.51"/>
    <poly id="99615566" type="leisure.golf_course" color="207,245,201" fill="0" layer="-2.00" shape="779.16,174.20 882.97,381.57"/>
    <poly id="99615578" type="leisure.golf_course" color="207,245,201" fill="0" layer="-2.00" shape="882.97,381.57 1056.13,321.97"/>
    <poly id="99615629" type="natural.wood" color="140,196,107" fill="0" layer="-4.00" shape="779.16,174.20 624.85,273.47 587.92,335.96 443.20,439.19 189.29,568.11"/>
    <poly id="99615666" type="natural.wood" color="140,196,107" fill="0" layer="-4.00" shape="239.76,661.81 322.76,609.77 324.81,601.60 324.85,600.32 325.12,593.98 322.31,586.97 329.92,580.17 352.81,565.75 370.30,557.57 374.95,564.01 380.21,570.34 550.64,486.24 715.83,426.43 882.97,381.57"/>
    <poly id="99615674" type="natural.wood" color="140,196,107" fill="0" layer="-4.00" shape="1978.59,1453.42 1937.14,1436.98 1873.69,1421.95 1792.73,1405.63 1704.67,1398.45 1569.93,1405.57 1375.98,1427.72 1260.40,1442.86 1313.21,1338.53 1384.06,1104.69 1391.79,1048.73 1401.00,1003.10 1387.05,949.76 1397.64,826.71 1525.83,638.81 1718.08,357.03 1689.81,301.04 1496.27,352.98 1291.74,384.70 1154.34,399.11 888.99,462.17 804.77,504.47 533.32,612.72 436.54,631.70 479.18,787.31 465.63,957.10 445.69,1098.65 411.84,1086.85 318.17,1036.22"/>
    <poly id="99615685" type="leisure.golf_course" color="207,245,201" fill="0" layer="-2.00" shape="1794.55,4.71 2395.20,-300.83 2417.06,-334.41 2416.71,-468.48 2486.40,-539.26 2525.77,-685.46 2054.78,-592.75 2046.23,-590.96 1875.46,-555.21 1824.96,-599.07 1521.90,-384.12 1222.49,-185.90 1008.30,-40.04 889.14,75.75 779.16,174.20"/>
    <poi id="790708869" type="tourism.viewpoint" color="207,245,201" layer="3.00" x="383.03" y="552.24"/>
</additional>
