<?xml version="1.0"?>
<!-- generated on 2017-04-09 00:33:13.269187 by $Id: route2trips.py 22929 2017-02-13 14:38:39Z behrisch $ via randomTrips.py
  options: 
-->
<routes xmlns:xsi="http://www.w3.org/2001/XMLSchema-instance" xsi:noNamespaceSchemaLocation="http://sumo.dlr.de/xsd/routes_file.xsd">
    <vType id="passenger" vClass="passenger"/>
    <trip id="veh0" depart="0.00" departLane="best" from="106468041" to="106468046#1" type="passenger"/>
    <trip id="veh1" depart="1.32" departLane="best" from="155241613#0" to="106468047" type="passenger"/>
    <trip id="veh2" depart="2.63" departLane="best" from="106468041" to="106468046#1" type="passenger"/>
    <trip id="veh3" depart="3.95" departLane="best" from="106468041" to="106468046#1" type="passenger"/>
    <trip id="veh4" depart="5.27" departLane="best" from="155241613#0" to="106468047" type="passenger"/>
    <trip id="veh5" depart="6.59" departLane="best" from="155241613#0" to="106468047" type="passenger"/>
    <trip id="veh6" depart="7.90" departLane="best" from="106468041" to="106468046#1" type="passenger"/>
    <trip id="veh7" depart="9.22" departLane="best" from="106468041" to="106468046#1" type="passenger"/>
    <trip id="veh8" depart="10.54" departLane="best" from="155241613#0" to="106468047" type="passenger"/>
    <trip id="veh9" depart="11.86" departLane="best" from="155241613#0" to="106468047" type="passenger"/>
    <trip id="veh10" depart="13.17" departLane="best" from="155241613#0" to="106468047" type="passenger"/>
    <trip id="veh11" depart="14.49" departLane="best" from="155241613#0" to="106468047" type="passenger"/>
    <trip id="veh12" depart="15.81" departLane="best" from="155241613#0" to="106468047" type="passenger"/>
    <trip id="veh13" depart="17.12" departLane="best" from="106468041" to="106468046#1" type="passenger"/>
    <trip id="veh14" depart="18.44" departLane="best" from="106468041" to="106468046#1" type="passenger"/>
    <trip id="veh15" depart="19.76" departLane="best" from="106468041" to="106468046#1" type="passenger"/>
    <trip id="veh16" depart="21.08" departLane="best" from="106468041" to="106468046#1" type="passenger"/>
    <trip id="veh17" depart="22.39" departLane="best" from="155241613#0" to="106468047" type="passenger"/>
    <trip id="veh18" depart="23.71" departLane="best" from="106468041" to="106468046#1" type="passenger"/>
    <trip id="veh19" depart="25.03" departLane="best" from="155241613#0" to="106468047" type="passenger"/>
    <trip id="veh20" depart="26.34" departLane="best" from="155241613#0" to="106468047" type="passenger"/>
    <trip id="veh21" depart="27.66" departLane="best" from="155241613#0" to="106468047" type="passenger"/>
    <trip id="veh22" depart="28.98" departLane="best" from="106468041" to="106468046#1" type="passenger"/>
    <trip id="veh23" depart="30.30" departLane="best" from="106468041" to="106468046#1" type="passenger"/>
    <trip id="veh24" depart="31.61" departLane="best" from="106468041" to="106468046#1" type="passenger"/>
    <trip id="veh25" depart="32.93" departLane="best" from="155241613#0" to="106468047" type="passenger"/>
    <trip id="veh26" depart="34.25" departLane="best" from="106468041" to="106468046#1" type="passenger"/>
    <trip id="veh27" depart="35.57" departLane="best" from="155241613#3" to="106468047" type="passenger"/>
    <trip id="veh28" depart="36.88" departLane="best" from="106468041" to="106468046#1" type="passenger"/>
    <trip id="veh29" depart="38.20" departLane="best" from="106468041" to="106468046#1" type="passenger"/>
    <trip id="veh30" depart="39.52" departLane="best" from="155241613#2" to="106468047" type="passenger"/>
    <trip id="veh31" depart="40.83" departLane="best" from="155241613#0" to="106468047" type="passenger"/>
    <trip id="veh32" depart="42.15" departLane="best" from="155241613#0" to="106468047" type="passenger"/>
    <trip id="veh33" depart="43.47" departLane="best" from="106468041" to="106468046#1" type="passenger"/>
    <trip id="veh34" depart="44.79" departLane="best" from="155241613#0" to="106468047" type="passenger"/>
    <trip id="veh35" depart="46.10" departLane="best" from="155241613#0" to="106468047" type="passenger"/>
    <trip id="veh36" depart="47.42" departLane="best" from="155241613#0" to="106468047" type="passenger"/>
    <trip id="veh37" depart="48.74" departLane="best" from="106468041" to="106468046#1" type="passenger"/>
    <trip id="veh38" depart="50.06" departLane="best" from="155241613#0" to="106468047" type="passenger"/>
    <trip id="veh39" depart="51.37" departLane="best" from="106468041" to="106468046#1" type="passenger"/>
    <trip id="veh40" depart="52.69" departLane="best" from="155241613#0" to="106468047" type="passenger"/>
    <trip id="veh41" depart="54.01" departLane="best" from="106468041" to="106468046#1" type="passenger"/>
    <trip id="veh42" depart="55.32" departLane="best" from="106468041" to="106468046#1" type="passenger"/>
    <trip id="veh43" depart="56.64" departLane="best" from="155241613#0" to="106468047" type="passenger"/>
    <trip id="veh44" depart="57.96" departLane="best" from="106468041" to="106468046#1" type="passenger"/>
    <trip id="veh45" depart="59.28" departLane="best" from="155241613#2" to="106468047" type="passenger"/>
    <trip id="veh46" depart="60.59" departLane="best" from="106468041" to="106468046#1" type="passenger"/>
    <trip id="veh47" depart="61.91" departLane="best" from="106468041" to="106468046#1" type="passenger"/>
    <trip id="veh48" depart="63.23" departLane="best" from="106468041" to="106468046#1" type="passenger"/>
    <trip id="veh49" depart="64.55" departLane="best" from="155241613#0" to="106468047" type="passenger"/>
    <trip id="veh50" depart="65.86" departLane="best" from="106468041" to="106468046#1" type="passenger"/>
    <trip id="veh51" depart="67.18" departLane="best" from="106468041" to="106468046#1" type="passenger"/>
    <trip id="veh52" depart="68.50" departLane="best" from="155241613#0" to="106468047" type="passenger"/>
    <trip id="veh53" depart="69.81" departLane="best" from="106468041" to="106468046#1" type="passenger"/>
    <trip id="veh54" depart="71.13" departLane="best" from="106468041" to="106468046#1" type="passenger"/>
    <trip id="veh55" depart="72.45" departLane="best" from="106468041" to="106468046#1" type="passenger"/>
    <trip id="veh56" depart="73.77" departLane="best" from="155241613#3" to="106468047" type="passenger"/>
    <trip id="veh57" depart="75.08" departLane="best" from="155241613#0" to="106468047" type="passenger"/>
    <trip id="veh58" depart="76.40" departLane="best" from="106468041" to="106468046#1" type="passenger"/>
    <trip id="veh59" depart="77.72" departLane="best" from="106468041" to="106468046#1" type="passenger"/>
    <trip id="veh60" depart="79.03" departLane="best" from="106468041" to="106468046#1" type="passenger"/>
    <trip id="veh61" depart="80.35" departLane="best" from="155241613#0" to="155241613#2" type="passenger"/>
    <trip id="veh62" depart="81.67" departLane="best" from="155241613#0" to="106468047" type="passenger"/>
    <trip id="veh63" depart="82.99" departLane="best" from="106468041" to="106468046#1" type="passenger"/>
    <trip id="veh64" depart="84.30" departLane="best" from="155241613#0" to="106468047" type="passenger"/>
    <trip id="veh65" depart="85.62" departLane="best" from="155241613#0" to="106468047" type="passenger"/>
    <trip id="veh66" depart="86.94" departLane="best" from="155241613#0" to="106468047" type="passenger"/>
    <trip id="veh67" depart="88.26" departLane="best" from="106468041" to="106468046#1" type="passenger"/>
    <trip id="veh68" depart="89.57" departLane="best" from="155241613#0" to="106468047" type="passenger"/>
    <trip id="veh69" depart="90.89" departLane="best" from="106468041" to="106468046#1" type="passenger"/>
    <trip id="veh70" depart="92.21" departLane="best" from="155241613#0" to="106468047" type="passenger"/>
    <trip id="veh71" depart="93.52" departLane="best" from="155241613#0" to="106468047" type="passenger"/>
    <trip id="veh72" depart="94.84" departLane="best" from="106468041" to="106468046#1" type="passenger"/>
    <trip id="veh73" depart="96.16" departLane="best" from="106468041" to="106468046#1" type="passenger"/>
    <trip id="veh74" depart="97.48" departLane="best" from="106468041" to="106468046#1" type="passenger"/>
    <trip id="veh75" depart="98.79" departLane="best" from="155241613#0" to="106468047" type="passenger"/>
    <trip id="veh76" depart="100.11" departLane="best" from="106468041" to="106468046#1" type="passenger"/>
    <trip id="veh77" depart="101.43" departLane="best" from="155241613#0" to="106468047" type="passenger"/>
    <trip id="veh78" depart="102.75" departLane="best" from="155241613#0" to="106468047" type="passenger"/>
    <trip id="veh79" depart="104.06" departLane="best" from="155241613#0" to="106468047" type="passenger"/>
    <trip id="veh80" depart="105.38" departLane="best" from="106468041" to="106468046#1" type="passenger"/>
    <trip id="veh81" depart="106.70" departLane="best" from="106468041" to="106468046#1" type="passenger"/>
    <trip id="veh82" depart="108.01" departLane="best" from="155241613#0" to="106468047" type="passenger"/>
    <trip id="veh83" depart="109.33" departLane="best" from="106468041" to="106468046#1" type="passenger"/>
    <trip id="veh84" depart="110.65" departLane="best" from="155241613#0" to="106468047" type="passenger"/>
    <trip id="veh85" depart="111.97" departLane="best" from="155241613#0" to="106468047" type="passenger"/>
    <trip id="veh86" depart="113.28" departLane="best" from="106468041" to="106468046#1" type="passenger"/>
    <trip id="veh87" depart="114.60" departLane="best" from="155241613#0" to="106468047" type="passenger"/>
    <trip id="veh88" depart="115.92" departLane="best" from="106468041" to="106468046#1" type="passenger"/>
    <trip id="veh89" depart="117.24" departLane="best" from="155241613#0" to="106468047" type="passenger"/>
    <trip id="veh90" depart="118.55" departLane="best" from="155241613#0" to="106468047" type="passenger"/>
    <trip id="veh91" depart="119.87" departLane="best" from="155241613#0" to="106468047" type="passenger"/>
    <trip id="veh92" depart="121.19" departLane="best" from="155241613#0" to="106468047" type="passenger"/>
    <trip id="veh93" depart="122.50" departLane="best" from="155241613#0" to="106468047" type="passenger"/>
    <trip id="veh94" depart="123.82" departLane="best" from="106468041" to="106468046#1" type="passenger"/>
    <trip id="veh95" depart="125.14" departLane="best" from="106468041" to="106468046#1" type="passenger"/>
    <trip id="veh96" depart="126.46" departLane="best" from="155241613#0" to="106468047" type="passenger"/>
    <trip id="veh97" depart="127.77" departLane="best" from="106468041" to="106468046#1" type="passenger"/>
    <trip id="veh98" depart="129.09" departLane="best" from="155241613#0" to="106468047" type="passenger"/>
    <trip id="veh99" depart="130.41" departLane="best" from="155241613#0" to="106468047" type="passenger"/>
    <trip id="veh100" depart="131.72" departLane="best" from="155241613#0" to="106468047" type="passenger"/>
    <trip id="veh101" depart="133.04" departLane="best" from="106468041" to="106468046#1" type="passenger"/>
    <trip id="veh102" depart="134.36" departLane="best" from="106468041" to="106468046#1" type="passenger"/>
    <trip id="veh103" depart="135.68" departLane="best" from="106468041" to="106468046#1" type="passenger"/>
    <trip id="veh104" depart="136.99" departLane="best" from="106468041" to="106468046#1" type="passenger"/>
    <trip id="veh105" depart="138.31" departLane="best" from="155241613#0" to="106468047" type="passenger"/>
    <trip id="veh106" depart="139.63" departLane="best" from="155241613#0" to="106468047" type="passenger"/>
    <trip id="veh107" depart="140.95" departLane="best" from="106468041" to="106468046#1" type="passenger"/>
    <trip id="veh108" depart="142.26" departLane="best" from="106468041" to="106468046#1" type="passenger"/>
    <trip id="veh109" depart="143.58" departLane="best" from="155241613#0" to="106468047" type="passenger"/>
    <trip id="veh110" depart="144.90" departLane="best" from="106468041" to="106468046#1" type="passenger"/>
    <trip id="veh111" depart="146.21" departLane="best" from="106468041" to="106468046#1" type="passenger"/>
    <trip id="veh112" depart="147.53" departLane="best" from="106468041" to="106468046#1" type="passenger"/>
    <trip id="veh113" depart="148.85" departLane="best" from="155241613#0" to="106468047" type="passenger"/>
    <trip id="veh114" depart="150.17" departLane="best" from="106468041" to="106468046#1" type="passenger"/>
    <trip id="veh115" depart="151.48" departLane="best" from="155241613#0" to="106468047" type="passenger"/>
    <trip id="veh116" depart="152.80" departLane="best" from="155241613#0" to="106468047" type="passenger"/>
    <trip id="veh117" depart="154.12" departLane="best" from="155241613#0" to="106468047" type="passenger"/>
    <trip id="veh118" depart="155.44" departLane="best" from="155241613#0" to="106468047" type="passenger"/>
    <trip id="veh119" depart="156.75" departLane="best" from="155241613#0" to="106468047" type="passenger"/>
    <trip id="veh120" depart="158.07" departLane="best" from="155241613#0" to="106468047" type="passenger"/>
    <trip id="veh121" depart="159.39" departLane="best" from="106468041" to="106468046#1" type="passenger"/>
    <trip id="veh122" depart="160.70" departLane="best" from="155241613#0" to="106468047" type="passenger"/>
    <trip id="veh123" depart="162.02" departLane="best" from="106468041" to="106468046#1" type="passenger"/>
    <trip id="veh124" depart="163.34" departLane="best" from="106468041" to="106468046#1" type="passenger"/>
    <trip id="veh125" depart="164.66" departLane="best" from="106468041" to="106468046#1" type="passenger"/>
    <trip id="veh126" depart="165.97" departLane="best" from="155241613#0" to="106468047" type="passenger"/>
    <trip id="veh127" depart="167.29" departLane="best" from="155241613#0" to="106468047" type="passenger"/>
    <trip id="veh128" depart="168.61" departLane="best" from="106468041" to="106468046#1" type="passenger"/>
    <trip id="veh129" depart="169.93" departLane="best" from="155241613#0" to="106468047" type="passenger"/>
    <trip id="veh130" depart="171.24" departLane="best" from="155241613#0" to="106468047" type="passenger"/>
    <trip id="veh131" depart="172.56" departLane="best" from="106468041" to="106468046#1" type="passenger"/>
    <trip id="veh132" depart="173.88" departLane="best" from="106468041" to="106468046#1" type="passenger"/>
    <trip id="veh133" depart="175.19" departLane="best" from="106468041" to="106468046#1" type="passenger"/>
    <trip id="veh134" depart="176.51" departLane="best" from="106468041" to="106468046#1" type="passenger"/>
    <trip id="veh135" depart="177.83" departLane="best" from="106468041" to="106468046#1" type="passenger"/>
    <trip id="veh136" depart="179.15" departLane="best" from="106468041" to="106468046#1" type="passenger"/>
    <trip id="veh137" depart="180.46" departLane="best" from="106468041" to="106468046#1" type="passenger"/>
    <trip id="veh138" depart="181.78" departLane="best" from="155241613#0" to="106468047" type="passenger"/>
    <trip id="veh139" depart="183.10" departLane="best" from="106468041" to="106468046#1" type="passenger"/>
    <trip id="veh141" depart="185.73" departLane="best" from="155241613#0" to="106468047" type="passenger"/>
    <trip id="veh142" depart="187.05" departLane="best" from="155241613#0" to="106468047" type="passenger"/>
    <trip id="veh143" depart="188.37" departLane="best" from="106468041" to="106468046#1" type="passenger"/>
    <trip id="veh144" depart="189.68" departLane="best" from="155241613#0" to="106468047" type="passenger"/>
    <trip id="veh145" depart="191.00" departLane="best" from="155241613#0" to="106468047" type="passenger"/>
    <trip id="veh146" depart="192.32" departLane="best" from="106468041" to="106468046#1" type="passenger"/>
    <trip id="veh147" depart="193.64" departLane="best" from="155241613#0" to="106468047" type="passenger"/>
    <trip id="veh148" depart="194.95" departLane="best" from="155241613#0" to="106468047" type="passenger"/>
    <trip id="veh149" depart="196.27" departLane="best" from="106468041" to="106468046#1" type="passenger"/>
    <trip id="veh150" depart="197.59" departLane="best" from="155241613#0" to="106468047" type="passenger"/>
    <trip id="veh151" depart="198.90" departLane="best" from="155241613#0" to="106468047" type="passenger"/>
    <trip id="veh152" depart="200.22" departLane="best" from="155241613#0" to="106468047" type="passenger"/>
    <trip id="veh153" depart="201.54" departLane="best" from="106468041" to="106468046#1" type="passenger"/>
    <trip id="veh154" depart="202.86" departLane="best" from="155241613#0" to="106468047" type="passenger"/>
    <trip id="veh155" depart="204.17" departLane="best" from="106468041" to="106468046#1" type="passenger"/>
    <trip id="veh156" depart="205.49" departLane="best" from="106468041" to="106468046#1" type="passenger"/>
    <trip id="veh157" depart="206.81" departLane="best" from="106468041" to="106468046#1" type="passenger"/>
    <trip id="veh158" depart="208.13" departLane="best" from="155241613#0" to="106468047" type="passenger"/>
    <trip id="veh159" depart="209.44" departLane="best" from="106468041" to="106468046#1" type="passenger"/>
    <trip id="veh160" depart="210.76" departLane="best" from="155241613#0" to="106468047" type="passenger"/>
    <trip id="veh161" depart="212.08" departLane="best" from="106468041" to="106468046#1" type="passenger"/>
    <trip id="veh162" depart="213.39" departLane="best" from="106468041" to="106468046#1" type="passenger"/>
    <trip id="veh163" depart="214.71" departLane="best" from="106468041" to="106468046#1" type="passenger"/>
    <trip id="veh164" depart="216.03" departLane="best" from="155241613#0" to="106468047" type="passenger"/>
    <trip id="veh165" depart="217.35" departLane="best" from="155241613#0" to="106468047" type="passenger"/>
    <trip id="veh166" depart="218.66" departLane="best" from="106468041" to="106468046#1" type="passenger"/>
    <trip id="veh167" depart="219.98" departLane="best" from="106468041" to="106468046#1" type="passenger"/>
    <trip id="veh168" depart="221.30" departLane="best" from="106468041" to="106468046#1" type="passenger"/>
    <trip id="veh170" depart="223.93" departLane="best" from="155241613#0" to="106468047" type="passenger"/>
    <trip id="veh171" depart="225.25" departLane="best" from="155241613#0" to="106468047" type="passenger"/>
    <trip id="veh172" depart="226.57" departLane="best" from="155241613#0" to="106468047" type="passenger"/>
    <trip id="veh173" depart="227.88" departLane="best" from="106468041" to="106468046#1" type="passenger"/>
    <trip id="veh174" depart="229.20" departLane="best" from="106468041" to="106468046#1" type="passenger"/>
    <trip id="veh175" depart="230.52" departLane="best" from="106468041" to="106468046#1" type="passenger"/>
    <trip id="veh176" depart="231.84" departLane="best" from="155241613#0" to="106468047" type="passenger"/>
    <trip id="veh177" depart="233.15" departLane="best" from="155241613#0" to="106468047" type="passenger"/>
    <trip id="veh178" depart="234.47" departLane="best" from="155241613#0" to="106468047" type="passenger"/>
    <trip id="veh179" depart="235.79" departLane="best" from="155241613#0" to="106468047" type="passenger"/>
    <trip id="veh180" depart="237.10" departLane="best" from="106468041" to="106468046#1" type="passenger"/>
    <trip id="veh181" depart="238.42" departLane="best" from="155241613#0" to="106468047" type="passenger"/>
    <trip id="veh182" depart="239.74" departLane="best" from="106468041" to="106468046#1" type="passenger"/>
    <trip id="veh183" depart="241.06" departLane="best" from="155241613#0" to="106468047" type="passenger"/>
    <trip id="veh184" depart="242.37" departLane="best" from="155241613#0" to="106468047" type="passenger"/>
    <trip id="veh185" depart="243.69" departLane="best" from="106468041" to="106468046#1" type="passenger"/>
    <trip id="veh186" depart="245.01" departLane="best" from="106468041" to="106468046#1" type="passenger"/>
    <trip id="veh187" depart="246.33" departLane="best" from="106468041" to="106468046#1" type="passenger"/>
    <trip id="veh188" depart="247.64" departLane="best" from="155241613#0" to="106468047" type="passenger"/>
    <trip id="veh189" depart="248.96" departLane="best" from="155241613#0" to="155241613#3" type="passenger"/>
    <trip id="veh190" depart="250.28" departLane="best" from="155241613#0" to="106468047" type="passenger"/>
    <trip id="veh191" depart="251.59" departLane="best" from="106468041" to="106468046#1" type="passenger"/>
    <trip id="veh192" depart="252.91" departLane="best" from="106468041" to="106468046#1" type="passenger"/>
    <trip id="veh193" depart="254.23" departLane="best" from="155241613#0" to="106468047" type="passenger"/>
    <trip id="veh194" depart="255.55" departLane="best" from="155241613#0" to="106468047" type="passenger"/>
    <trip id="veh195" depart="256.86" departLane="best" from="106468041" to="106468046#1" type="passenger"/>
    <trip id="veh196" depart="258.18" departLane="best" from="155241613#0" to="106468047" type="passenger"/>
    <trip id="veh197" depart="259.50" departLane="best" from="106468041" to="106468046#1" type="passenger"/>
    <trip id="veh198" depart="260.82" departLane="best" from="155241613#0" to="106468047" type="passenger"/>
    <trip id="veh199" depart="262.13" departLane="best" from="155241613#0" to="106468047" type="passenger"/>
    <trip id="veh200" depart="263.45" departLane="best" from="155241613#0" to="106468047" type="passenger"/>
    <trip id="veh201" depart="264.77" departLane="best" from="106468041" to="106468046#1" type="passenger"/>
    <trip id="veh202" depart="266.08" departLane="best" from="155241613#0" to="106468047" type="passenger"/>
    <trip id="veh203" depart="267.40" departLane="best" from="155241613#0" to="106468047" type="passenger"/>
    <trip id="veh204" depart="268.72" departLane="best" from="155241613#0" to="106468047" type="passenger"/>
    <trip id="veh205" depart="270.04" departLane="best" from="155241613#0" to="106468047" type="passenger"/>
    <trip id="veh206" depart="271.35" departLane="best" from="155241613#0" to="106468047" type="passenger"/>
    <trip id="veh207" depart="272.67" departLane="best" from="106468041" to="106468046#1" type="passenger"/>
    <trip id="veh208" depart="273.99" departLane="best" from="155241613#0" to="155241613#3" type="passenger"/>
    <trip id="veh209" depart="275.30" departLane="best" from="106468041" to="106468046#1" type="passenger"/>
    <trip id="veh210" depart="276.62" departLane="best" from="155241613#0" to="106468047" type="passenger"/>
    <trip id="veh211" depart="277.94" departLane="best" from="106468041" to="106468046#1" type="passenger"/>
    <trip id="veh212" depart="279.26" departLane="best" from="155241613#0" to="106468047" type="passenger"/>
    <trip id="veh213" depart="280.57" departLane="best" from="155241613#0" to="106468047" type="passenger"/>
    <trip id="veh214" depart="281.89" departLane="best" from="155241613#0" to="106468047" type="passenger"/>
    <trip id="veh215" depart="283.21" departLane="best" from="155241613#0" to="106468047" type="passenger"/>
    <trip id="veh216" depart="284.53" departLane="best" from="155241613#0" to="106468047" type="passenger"/>
    <trip id="veh217" depart="285.84" departLane="best" from="106468041" to="106468046#1" type="passenger"/>
    <trip id="veh218" depart="287.16" departLane="best" from="155241613#0" to="106468047" type="passenger"/>
    <trip id="veh219" depart="288.48" departLane="best" from="155241613#0" to="155241613#2" type="passenger"/>
    <trip id="veh220" depart="289.79" departLane="best" from="155241613#0" to="106468047" type="passenger"/>
    <trip id="veh221" depart="291.11" departLane="best" from="106468041" to="106468046#1" type="passenger"/>
    <trip id="veh222" depart="292.43" departLane="best" from="155241613#0" to="106468047" type="passenger"/>
    <trip id="veh223" depart="293.75" departLane="best" from="106468041" to="106468046#1" type="passenger"/>
    <trip id="veh224" depart="295.06" departLane="best" from="155241613#0" to="106468047" type="passenger"/>
    <trip id="veh225" depart="296.38" departLane="best" from="106468041" to="106468046#1" type="passenger"/>
    <trip id="veh226" depart="297.70" departLane="best" from="106468041" to="106468046#1" type="passenger"/>
    <trip id="veh227" depart="299.02" departLane="best" from="155241613#0" to="106468047" type="passenger"/>
    <trip id="veh228" depart="300.33" departLane="best" from="106468041" to="106468046#1" type="passenger"/>
    <trip id="veh229" depart="301.65" departLane="best" from="106468041" to="106468046#1" type="passenger"/>
    <trip id="veh230" depart="302.97" departLane="best" from="106468041" to="106468046#1" type="passenger"/>
    <trip id="veh231" depart="304.28" departLane="best" from="155241613#0" to="106468047" type="passenger"/>
    <trip id="veh233" depart="306.92" departLane="best" from="155241613#0" to="106468047" type="passenger"/>
    <trip id="veh234" depart="308.24" departLane="best" from="155241613#0" to="106468047" type="passenger"/>
    <trip id="veh236" depart="310.87" departLane="best" from="155241613#0" to="106468047" type="passenger"/>
    <trip id="veh237" depart="312.19" departLane="best" from="155241613#0" to="106468047" type="passenger"/>
    <trip id="veh238" depart="313.51" departLane="best" from="155241613#0" to="106468047" type="passenger"/>
    <trip id="veh239" depart="314.82" departLane="best" from="155241613#0" to="106468047" type="passenger"/>
    <trip id="veh240" depart="316.14" departLane="best" from="106468041" to="106468046#1" type="passenger"/>
    <trip id="veh241" depart="317.46" departLane="best" from="155241613#0" to="106468047" type="passenger"/>
    <trip id="veh242" depart="318.77" departLane="best" from="155241613#0" to="106468047" type="passenger"/>
    <trip id="veh243" depart="320.09" departLane="best" from="155241613#0" to="106468047" type="passenger"/>
    <trip id="veh244" depart="321.41" departLane="best" from="106468041" to="106468046#1" type="passenger"/>
    <trip id="veh245" depart="322.73" departLane="best" from="155241613#0" to="106468047" type="passenger"/>
    <trip id="veh246" depart="324.04" departLane="best" from="155241613#0" to="106468047" type="passenger"/>
    <trip id="veh247" depart="325.36" departLane="best" from="155241613#0" to="106468047" type="passenger"/>
    <trip id="veh248" depart="326.68" departLane="best" from="155241613#0" to="106468047" type="passenger"/>
    <trip id="veh249" depart="327.99" departLane="best" from="155241613#0" to="106468047" type="passenger"/>
    <trip id="veh250" depart="329.31" departLane="best" from="106468041" to="106468046#1" type="passenger"/>
    <trip id="veh251" depart="330.63" departLane="best" from="155241613#0" to="106468047" type="passenger"/>
    <trip id="veh252" depart="331.95" departLane="best" from="106468041" to="106468046#1" type="passenger"/>
    <trip id="veh253" depart="333.26" departLane="best" from="155241613#0" to="106468047" type="passenger"/>
    <trip id="veh254" depart="334.58" departLane="best" from="106468041" to="106468046#1" type="passenger"/>
    <trip id="veh255" depart="335.90" departLane="best" from="106468041" to="106468046#1" type="passenger"/>
    <trip id="veh256" depart="337.22" departLane="best" from="106468041" to="106468046#1" type="passenger"/>
    <trip id="veh257" depart="338.53" departLane="best" from="155241613#0" to="106468047" type="passenger"/>
    <trip id="veh258" depart="339.85" departLane="best" from="106468041" to="106468046#1" type="passenger"/>
    <trip id="veh259" depart="341.17" departLane="best" from="106468041" to="106468046#1" type="passenger"/>
    <trip id="veh260" depart="342.48" departLane="best" from="106468041" to="106468046#1" type="passenger"/>
    <trip id="veh261" depart="343.80" departLane="best" from="155241613#0" to="106468047" type="passenger"/>
    <trip id="veh262" depart="345.12" departLane="best" from="155241613#0" to="106468047" type="passenger"/>
    <trip id="veh263" depart="346.44" departLane="best" from="106468041" to="106468046#1" type="passenger"/>
    <trip id="veh264" depart="347.75" departLane="best" from="106468041" to="106468046#1" type="passenger"/>
    <trip id="veh265" depart="349.07" departLane="best" from="155241613#0" to="106468047" type="passenger"/>
    <trip id="veh266" depart="350.39" departLane="best" from="106468041" to="106468046#1" type="passenger"/>
    <trip id="veh267" depart="351.71" departLane="best" from="106468041" to="106468046#1" type="passenger"/>
    <trip id="veh268" depart="353.02" departLane="best" from="106468041" to="106468046#1" type="passenger"/>
    <trip id="veh269" depart="354.34" departLane="best" from="106468041" to="106468046#1" type="passenger"/>
    <trip id="veh270" depart="355.66" departLane="best" from="106468041" to="106468046#1" type="passenger"/>
    <trip id="veh271" depart="356.97" departLane="best" from="155241613#0" to="106468047" type="passenger"/>
    <trip id="veh272" depart="358.29" departLane="best" from="155241613#0" to="106468047" type="passenger"/>
    <trip id="veh273" depart="359.61" departLane="best" from="155241613#0" to="106468047" type="passenger"/>
    <trip id="veh274" depart="360.93" departLane="best" from="106468041" to="106468046#1" type="passenger"/>
    <trip id="veh275" depart="362.24" departLane="best" from="106468041" to="106468046#1" type="passenger"/>
    <trip id="veh276" depart="363.56" departLane="best" from="155241613#0" to="106468047" type="passenger"/>